Circuit: * C:\Users\sidhant priyadarshi\OneDrive\Documents\LTspiceXVII\myadc.asc

Direct Newton iteration for .op point succeeded.

Date: Sun Jul 11 19:49:59 2021
Total elapsed time: 0.147 seconds.

tnom = 27
temp = 27
method = modified trap
totiter = 3898
traniter = 3867
tranpoints = 1509
accept = 1342
rejected = 167
matrix size = 15
fillins = 2
solver = Normal
Matrix Compiler1: 734 bytes object code size  0.2/0.1/[0.1]
Matrix Compiler2: off  [0.1]/0.2/0.1

